Version 4.1
SHEET 1 880 716
WIRE -80 -96 -80 -112
WIRE -80 32 -80 -16
WIRE -16 32 -80 32
WIRE 192 32 192 -48
WIRE 192 32 64 32
WIRE -80 96 -80 32
WIRE 192 96 192 32
WIRE 464 96 464 32
WIRE 576 96 464 96
WIRE 752 96 576 96
WIRE 864 96 832 96
WIRE -176 208 -176 176
WIRE 464 224 464 160
WIRE 576 224 576 160
WIRE 576 224 464 224
WIRE -80 272 -80 160
WIRE 192 272 192 160
WIRE 464 272 464 224
WIRE 464 432 464 400
WIRE 464 544 464 512
WIRE 544 544 464 544
WIRE 464 608 464 544
WIRE 464 624 464 608
WIRE 464 704 464 672
FLAG -80 272 0
FLAG -80 -112 0
FLAG 192 272 0
FLAG 192 -48 VDD33
FLAG 464 272 0
FLAG 464 32 VDD33
FLAG 464 400 VDD33
FLAG 464 704 0
FLAG 544 544 0
FLAG 864 96 0
SYMBOL res 80 16 R90
WINDOW 0 0 56 VBottom 2
WINDOW 3 32 56 VTop 2
SYMATTR InstName LDO
SYMATTR Value 10.1010101m
SYMBOL res -192 80 R0
SYMATTR InstName R1
SYMATTR Value 2k
SYMATTR SpiceLine tol=5
SYMBOL LED -192 208 R0
SYMATTR InstName D1
SYMBOL cap -96 96 R0
SYMATTR InstName C1
SYMATTR Value 22”
SYMATTR SpiceLine V=10
SYMBOL voltage -80 0 R180
WINDOW 0 24 96 Left 2
WINDOW 3 24 16 Left 2
WINDOW 123 0 0 Left 0
WINDOW 39 0 0 Left 0
SYMATTR InstName Vdd
SYMATTR Value 3.3
SYMBOL cap 176 96 R0
SYMATTR InstName C2
SYMATTR Value 22”
SYMATTR SpiceLine V=10
SYMBOL cap 448 96 R0
SYMATTR InstName C3
SYMATTR Value 0.1”
SYMATTR SpiceLine V=50
SYMBOL cap 560 96 R0
SYMATTR InstName C4
SYMATTR Value 0.1”
SYMATTR SpiceLine V=50
SYMBOL res 848 80 R90
WINDOW 0 0 56 VBottom 2
WINDOW 3 32 56 VTop 2
SYMATTR InstName R2
SYMATTR Value 330k
SYMBOL res 448 416 R0
SYMATTR InstName R3
SYMATTR Value 10k
SYMATTR SpiceLine tol=5
SYMBOL cap 448 608 R0
SYMATTR InstName C5
SYMATTR Value 0.1”
SYMATTR SpiceLine V=50
TEXT 512 528 Left 2 ;EN
TEXT 712 80 Left 2 ;3.3V
TEXT 64 520 Left 2 !.tran 10
TEXT -224 552 Left 2 ;I chose to exclude the Micro-USB schematic and\nall of its connections because it will not be relevant during actual use.
