Version 4.1
SHEET 1 880 680
WIRE 192 32 192 16
WIRE 192 128 192 112
WIRE 192 128 144 128
WIRE 256 128 192 128
WIRE 368 128 256 128
WIRE 512 128 368 128
WIRE 608 128 592 128
WIRE 192 144 192 128
WIRE 256 144 256 128
WIRE 192 224 192 208
WIRE 256 224 256 208
WIRE 256 224 192 224
WIRE 368 224 368 208
WIRE 512 224 368 224
WIRE 192 240 192 224
WIRE 368 240 368 224
WIRE 368 320 368 304
WIRE 80 384 -16 384
WIRE 144 384 144 128
WIRE 144 384 80 384
WIRE 176 384 144 384
WIRE 272 384 256 384
WIRE 352 384 336 384
WIRE -16 400 -16 384
WIRE 80 400 80 384
WIRE 144 400 144 384
WIRE 80 480 80 464
WIRE 80 480 -16 480
WIRE -16 576 -16 560
WIRE 144 576 144 464
FLAG 192 240 0
FLAG 368 320 0
FLAG 608 128 0
FLAG 192 16 0
FLAG 352 384 0
FLAG 144 576 0
FLAG -16 576 0
SYMBOL voltage 192 128 R180
WINDOW 0 24 96 Left 2
WINDOW 3 24 16 Left 2
SYMATTR InstName VCC
SYMATTR Value 3.3
SYMBOL cap 176 144 R0
SYMATTR InstName C1
SYMATTR Value 10”
SYMBOL cap 240 144 R0
SYMATTR InstName C2
SYMATTR Value 0.1”
SYMBOL res 352 112 R0
SYMATTR InstName R5
SYMATTR Value 10K
SYMBOL res 608 112 R90
WINDOW 0 0 56 VBottom 2
WINDOW 3 32 56 VTop 2
SYMATTR InstName ESP32-C5-WROOM-1/1U_EQV
SYMATTR Value 275K
SYMBOL cap 352 240 R0
SYMATTR InstName C6
SYMATTR Value 1”
SYMBOL res 272 368 R90
WINDOW 0 0 56 VBottom 2
WINDOW 3 32 56 VTop 2
SYMATTR InstName R11
SYMATTR Value 5.1K
SYMBOL LED 272 400 R270
WINDOW 0 72 32 VTop 2
WINDOW 3 0 32 VBottom 2
SYMATTR InstName D5
SYMBOL cap 128 400 R0
SYMATTR InstName C10
SYMATTR Value 10”
SYMBOL cap 64 400 R0
SYMATTR InstName C9
SYMATTR Value 22p
SYMBOL res -32 384 R0
SYMATTR InstName R4
SYMATTR Value 680K
SYMBOL res -32 464 R0
SYMATTR InstName R20
SYMATTR Value 150K
TEXT 304 128 Left 2 ;J5
TEXT 520 184 Left 2 ;DeepSleep = 275K
TEXT 512 224 Left 2 ;EN
TEXT 704 16 Left 2 !.op
