Version 4.1
SHEET 1 880 680
WIRE 336 16 336 0
WIRE 336 128 336 96
WIRE 336 128 240 128
WIRE 464 128 336 128
WIRE 528 128 464 128
WIRE 672 128 528 128
WIRE 736 128 672 128
WIRE 800 128 736 128
WIRE 240 144 240 128
WIRE 464 144 464 128
WIRE 528 144 528 128
WIRE 672 144 672 128
WIRE 736 144 736 128
WIRE 672 208 672 192
WIRE 736 208 736 192
WIRE 464 224 464 208
WIRE 528 224 528 208
WIRE 528 224 464 224
WIRE 672 224 672 208
WIRE 736 224 736 208
WIRE 736 224 672 224
WIRE 800 224 800 208
WIRE 240 240 240 224
WIRE 528 240 528 224
WIRE 736 240 736 224
WIRE 800 320 800 304
FLAG 336 0 0
FLAG 240 240 0
FLAG 528 240 0
FLAG 736 240 0
FLAG 800 320 0
SYMBOL voltage 336 112 R180
WINDOW 0 24 96 Left 2
WINDOW 3 24 16 Left 2
SYMATTR InstName 3V3DC
SYMATTR Value 3.3
SYMBOL res 224 128 R0
SYMATTR InstName Reqv_WT32-S1
SYMATTR Value 22k
SYMBOL cap 448 144 R0
SYMATTR InstName C8
SYMATTR Value 22”
SYMBOL cap 512 144 R0
SYMATTR InstName C9
SYMATTR Value 0.1”
SYMBOL cap 656 144 R0
SYMATTR InstName C2
SYMATTR Value 10”
SYMBOL cap 720 144 R0
SYMATTR InstName C4
SYMATTR Value .1”
SYMBOL LED 784 144 R0
SYMATTR InstName LED1
SYMBOL res 784 208 R0
SYMATTR InstName R10
SYMATTR Value 1K
TEXT -168 160 Left 2 ;Deep Sleep - 150 uA - 22 kO. eqv.\nWiFI RX - 100 mA - 33 O. eqv.
TEXT 824 -8 Left 2 !.op
